7

C          1.01111       -0.03559       -0.04313
C          0.36251       -0.61199        0.92113
C         -0.28609       -1.18840        1.88540
H          0.48027        0.44924       -0.85425
H          2.09490       -0.02901       -0.05406
H         -0.54084       -2.24039        1.82905
H         -0.58428       -0.62780        2.76379

