 11

C   -1.232983  -0.321673  -0.105358
C    1.243527   0.070589  -0.288927
C   -0.013971   0.332706   0.522469
H   -1.409212   0.063988  -1.114625
H   -1.106163  -1.407114  -0.169728
H   -2.124468  -0.118860   0.496321
H    1.145567   0.468640  -1.303997
H    2.106311   0.551275   0.182712
H    1.448625  -1.002453  -0.359095
H   -0.179317   1.412994   0.600234
H    0.122085  -0.050093   1.539995
