5
METHANE
C       -4.4239324742      0.7183122967      0.0000000000                 
H       -3.3539324742      0.7183122967      0.0000000000                 
H       -4.7805952561     -0.0172706729      0.6903689990                 
H       -4.7806001120      0.4882265030     -0.9822162306                 
H       -4.7806014069      1.6839793071      0.2918467018                 
