4
FORMALDEHYDE
C       -2.9866898591     -0.1056341692      0.0000000000                 
O       -1.7620582892     -0.1056341692      0.0000000000                 
H       -3.5743411137      0.5350573594     -0.6766994548                 
H       -3.5743411137     -0.7463256977      0.6766994548                 
