 30

C   -6.410613   0.497300   0.902008
C    3.832868   3.327212   0.702369
C    1.218872  -3.018235   0.717698
C   -5.013284   0.453403   0.474002
C    3.366317   2.007016   0.277965
C    0.641709  -2.116154  -0.366612
C   -3.866019   0.416093   0.122885
C    2.985564   0.922378  -0.070446
C   -2.394775   0.367323  -0.327138
C    2.520688  -0.410109  -0.496802
C   -1.247140   0.328206  -0.677610
C    1.020687  -0.622686  -0.195443
C    0.159584   0.287835  -1.106933
O    0.227662  -0.168214  -2.455873
H   -6.487972   0.812450   1.946942
H   -6.877289  -0.487998   0.809317
H   -6.982738   1.202515   0.291653
H    3.699291   4.062327  -0.096949
H    4.894883   3.298979   0.964004
H    3.276206   3.673203   1.578478
H    0.826750  -4.034368   0.604787
H    0.943229  -2.659805   1.714441
H    2.308645  -3.080804   0.659998
H    0.969282  -2.482148  -1.347194
H   -0.448119  -2.229315  -0.336836
H    2.722368  -0.550442  -1.565275
H    3.126872  -1.151941   0.033154
H    0.831010  -0.339025   0.850069
H    0.545727   1.312969  -1.093024
H   -0.390265   0.382033  -2.967108

