32
ABSTRACTION TS
O   -0.645183   1.207073  -0.515242
O    0.636891   1.397951  -0.480729
H   -1.188475   0.397798  -0.453929
C   -2.226286  -2.380179  -2.131239
C    4.964449   0.229398   4.008352
C   -2.119127  -1.017559  -1.507784
C    3.942282   0.105966   2.891155
C   -2.165290  -1.007917  -0.019062
C    3.042044  -1.120033   3.075319
C   -1.250499  -0.991154   0.962002
C    2.068777  -1.370207   1.921021
C    0.115082  -0.646202   0.672441
C    1.046943  -0.264439   1.775500
H   -3.166237  -2.864960  -1.850687
H   -2.198162  -2.278076  -3.222841
H   -1.394455  -3.020848  -1.822101
H    5.618772  -0.647224   4.025498
H    5.588309   1.118623   3.863549
H    4.471021   0.314949   4.981422
H   -2.930108  -0.361658  -1.861943
H   -1.189629  -0.519380  -1.823481
H    3.343141   1.023736   2.880681
H    4.468375   0.048764   1.931046
H   -3.183924  -1.273190   0.361527
H    2.477276  -1.029904   4.010686
H    3.667986  -2.013255   3.166423
H   -1.534791  -0.921862   1.996130
H    1.520175  -2.306847   2.086090
H    2.639067  -1.476087   0.988606
H    0.431106  -0.438190  -0.353603
H    1.534628   0.706088   1.532781
H    0.522134  -0.074692   2.725493
